tests/resources/cases/ieee25.m
function mpc = ieee25
mpc.version = '2';
mpc.baseMVA = 100.0;

%% bus data
%	bus_i	bus_type	pd	qd	gs	bs	bus_area	vm	va	base_kv	zone	vmax	vmin
mpc.bus = [
	101	 2	 100.0	 27.5	 0.0	 0.0	 1	 1.04908	 -9.1886	 138.0	 1	 1.1	 0.9;
	102	 2	 121.3	 25.0	 0.0	 0.0	 1	 1.04939	 -9.4693	 138.0	 2	 1.1	 0.9;
	103	 1	 225.0	 46.3	 0.0	 0.0	 2	 0.99832	 -0.946	 138.0	 1	 1.1	 0.9;
	104	 1	 92.5	 18.8	 0.0	 0.0	 1	 0.99775	 -10.9763	 138.0	 1	 1.1	 0.9;
	105	 1	 88.8	 17.5	 0.0	 0.0	 1	 1.01101	 -15.8598	 138.0	 1	 1.1	 0.9;
	106	 1	 170.0	 35.0	 0.0	 -40.0	 2	 1.02145	 -21.203	 138.0	 2	 1.1	 0.9;
	107	 2	 156.3	 31.3	 0.0	 0.0	 5	 1.04439	 -17.4376	 138.0	 2	 1.1	 0.9;
	108	 1	 213.8	 43.8	 0.0	 0.0	 5	 0.98908	 -19.6391	 138.0	 2	 1.1	 0.9;
	109	 1	 218.8	 45.0	 0.0	 0.0	 2	 0.99936	 -6.9988	 138.0	 3	 1.1	 0.9;
	110	 1	 243.8	 50.0	 0.0	 0.0	 2	 1.01324	 -18.8698	 138.0	 3	 1.1	 0.9;
	211	 1	 0.0	 0.0	 0.0	 0.0	 3	 0.96884	 -10.9822	 230.0	 3	 1.1	 0.9;
	212	 1	 0.0	 0.0	 0.0	 0.0	 3	 0.97573	 0.9025	 230.0	 3	 1.1	 0.9;
	213	 3	 331.3	 67.5	 0.0	 0.0	 3	 1.01558	 0.0	 230.0	 4	 1.1	 0.9;
	214	 2	 242.5	 49.8	 0.0	 0.0	 3	 1.00442	 -12.8007	 230.0	 6	 1.1	 0.9;
	215	 2	 396.3	 80.0	 0.0	 0.0	 4	 1.02448	 14.813	 230.0	 6	 1.1	 0.9;
	216	 2	 125.0	 25.0	 0.0	 0.0	 4	 1.02648	 15.6407	 230.0	 6	 1.1	 0.9;
	217	 1	 0.0	 0.0	 0.0	 0.0	 4	 1.04066	 20.1066	 230.0	 7	 1.1	 0.9;
	218	 2	 416.3	 85.0	 0.0	 0.0	 4	 1.04994	 20.933	 230.0	 7	 1.1	 0.9;
	219	 1	 226.3	 46.2	 0.0	 0.0	 3	 1.02596	 14.6135	 230.0	 5	 1.1	 0.9;
	220	 1	 160.0	 32.5	 0.0	 0.0	 3	 1.03837	 16.1055	 230.0	 5	 1.1	 0.9;
	221	 2	 0.0	 0.0	 0.0	 0.0	 4	 1.04994	 21.8401	 230.0	 7	 1.1	 0.9;
	222	 2	 0.0	 0.0	 0.0	 0.0	 4	 1.04966	 32.0104	 230.0	 7	 1.1	 0.9;
	223	 2	 0.0	 0.0	 0.0	 0.0	 3	 1.0499	 17.7951	 230.0	 5	 1.1	 0.9;
	224	 1	 0.0	 0.0	 0.0	 0.0	 3	 0.97191	 3.618	 230.0	 6	 1.1	 0.9;
	225	 1	 0.0	 0.0	 0.0	 0.0	 3	 1.00938	 11.7823	 230.0	 5	 1.1	 0.9;
];

%% generator data
%	gen_bus	pg	qg	qmax	qmin	vg	mbase	gen_status	pmax	pmin	pc1	pc2	qc1min	qc1max	qc2min	qc2max	ramp_agc	ramp_10	ramp_30	ramp_q	apf
mpc.gen = [
	101	 76.0	 17.071	 30.0	 -25.0	 1.04908	 100.0	 1	 80.0	 0.0	 0.0	 0.0	 0.0	 0.0	 0.0	 0.0	 0.0	 0.0	 0.0	 0.0	 0.0;
	101	 76.0	 17.071	 30.0	 -25.0	 1.04908	 100.0	 1	 80.0	 0.0	 0.0	 0.0	 0.0	 0.0	 0.0	 0.0	 0.0	 0.0	 0.0	 0.0	 0.0;
	101	 76.0	 17.071	 30.0	 -25.0	 1.04908	 100.0	 1	 80.0	 0.0	 0.0	 0.0	 0.0	 0.0	 0.0	 0.0	 0.0	 0.0	 0.0	 0.0	 0.0;
	102	 76.0	 12.335	 30.0	 -25.0	 1.04939	 100.0	 1	 80.0	 0.0	 0.0	 0.0	 0.0	 0.0	 0.0	 0.0	 0.0	 0.0	 0.0	 0.0	 0.0;
	102	 76.0	 12.335	 30.0	 -25.0	 1.04939	 100.0	 1	 80.0	 0.0	 0.0	 0.0	 0.0	 0.0	 0.0	 0.0	 0.0	 0.0	 0.0	 0.0	 0.0;
	102	 76.0	 12.335	 30.0	 -25.0	 1.04939	 100.0	 1	 80.0	 0.0	 0.0	 0.0	 0.0	 0.0	 0.0	 0.0	 0.0	 0.0	 0.0	 0.0	 0.0;
	107	 80.0	 34.683	 60.0	 0.0	 1.04439	 100.0	 1	 100.0	 0.0	 0.0	 0.0	 0.0	 0.0	 0.0	 0.0	 0.0	 0.0	 0.0	 0.0	 0.0;
	107	 80.0	 34.683	 60.0	 0.0	 1.04439	 100.0	 1	 100.0	 0.0	 0.0	 0.0	 0.0	 0.0	 0.0	 0.0	 0.0	 0.0	 0.0	 0.0	 0.0;
	107	 80.0	 34.683	 60.0	 0.0	 1.04439	 100.0	 1	 100.0	 0.0	 0.0	 0.0	 0.0	 0.0	 0.0	 0.0	 0.0	 0.0	 0.0	 0.0	 0.0;
	213	 78.722	 65.351	 80.0	 0.0	 1.01558	 100.0	 1	 200.0	 0.0	 0.0	 0.0	 0.0	 0.0	 0.0	 0.0	 0.0	 0.0	 0.0	 0.0	 0.0;
	213	 89.195	 74.045	 80.0	 0.0	 1.01558	 100.0	 1	 200.0	 0.0	 0.0	 0.0	 0.0	 0.0	 0.0	 0.0	 0.0	 0.0	 0.0	 0.0	 0.0;
	213	 89.195	 74.045	 80.0	 0.0	 1.01558	 100.0	 1	 200.0	 0.0	 0.0	 0.0	 0.0	 0.0	 0.0	 0.0	 0.0	 0.0	 0.0	 0.0	 0.0;
	213	 89.195	 74.045	 80.0	 0.0	 1.01558	 100.0	 1	 200.0	 0.0	 0.0	 0.0	 0.0	 0.0	 0.0	 0.0	 0.0	 0.0	 0.0	 0.0	 0.0;
	214	 0.0	 63.649	 50.0	 -200.0	 1.00442	 100.0	 1	 0.0	 0.0	 0.0	 0.0	 0.0	 0.0	 0.0	 0.0	 0.0	 0.0	 0.0	 0.0	 0.0;
	214	 0.0	 63.649	 50.0	 -200.0	 1.00442	 100.0	 1	 0.0	 0.0	 0.0	 0.0	 0.0	 0.0	 0.0	 0.0	 0.0	 0.0	 0.0	 0.0	 0.0;
	215	 155.0	 147.839	 80.0	 -50.0	 1.02448	 100.0	 1	 300.0	 0.0	 0.0	 0.0	 0.0	 0.0	 0.0	 0.0	 0.0	 0.0	 0.0	 0.0	 0.0;
	216	 155.0	 32.151	 80.0	 -50.0	 1.02648	 100.0	 1	 300.0	 0.0	 0.0	 0.0	 0.0	 0.0	 0.0	 0.0	 0.0	 0.0	 0.0	 0.0	 0.0;
	218	 400.0	 149.169	 200.0	 -50.0	 1.04994	 100.0	 1	 600.0	 0.0	 0.0	 0.0	 0.0	 0.0	 0.0	 0.0	 0.0	 0.0	 0.0	 0.0	 0.0;
	221	 400.0	 92.571	 200.0	 -50.0	 1.04994	 100.0	 1	 400.0	 0.0	 0.0	 0.0	 0.0	 0.0	 0.0	 0.0	 0.0	 0.0	 0.0	 0.0	 0.0;
	222	 50.0	 -2.778	 16.0	 -10.0	 1.04966	 100.0	 1	 50.0	 50.0	 0.0	 0.0	 0.0	 0.0	 0.0	 0.0	 0.0	 0.0	 0.0	 0.0	 0.0;
	222	 50.0	 -2.778	 16.0	 -10.0	 1.04966	 100.0	 1	 50.0	 50.0	 0.0	 0.0	 0.0	 0.0	 0.0	 0.0	 0.0	 0.0	 0.0	 0.0	 0.0;
	222	 50.0	 -2.778	 16.0	 -10.0	 1.04966	 100.0	 1	 50.0	 50.0	 0.0	 0.0	 0.0	 0.0	 0.0	 0.0	 0.0	 0.0	 0.0	 0.0	 0.0;
	222	 50.0	 -2.778	 16.0	 -10.0	 1.04966	 100.0	 1	 50.0	 50.0	 0.0	 0.0	 0.0	 0.0	 0.0	 0.0	 0.0	 0.0	 0.0	 0.0	 0.0;
	222	 50.0	 -2.778	 16.0	 -10.0	 1.04966	 100.0	 1	 50.0	 50.0	 0.0	 0.0	 0.0	 0.0	 0.0	 0.0	 0.0	 0.0	 0.0	 0.0	 0.0;
	222	 50.0	 -2.778	 16.0	 -10.0	 1.04966	 100.0	 1	 50.0	 50.0	 0.0	 0.0	 0.0	 0.0	 0.0	 0.0	 0.0	 0.0	 0.0	 0.0	 0.0;
	222	 50.0	 -2.778	 16.0	 -10.0	 1.04966	 100.0	 1	 50.0	 50.0	 0.0	 0.0	 0.0	 0.0	 0.0	 0.0	 0.0	 0.0	 0.0	 0.0	 0.0;
	222	 50.0	 -2.778	 16.0	 -10.0	 1.04966	 100.0	 1	 50.0	 50.0	 0.0	 0.0	 0.0	 0.0	 0.0	 0.0	 0.0	 0.0	 0.0	 0.0	 0.0;
	222	 50.0	 -2.778	 16.0	 -10.0	 1.04966	 100.0	 1	 50.0	 50.0	 0.0	 0.0	 0.0	 0.0	 0.0	 0.0	 0.0	 0.0	 0.0	 0.0	 0.0;
	222	 50.0	 -2.778	 16.0	 -10.0	 1.04966	 100.0	 1	 50.0	 50.0	 0.0	 0.0	 0.0	 0.0	 0.0	 0.0	 0.0	 0.0	 0.0	 0.0	 0.0;
	223	 155.0	 28.726	 80.0	 -50.0	 1.0499	 100.0	 1	 155.0	 0.0	 0.0	 0.0	 0.0	 0.0	 0.0	 0.0	 0.0	 0.0	 0.0	 0.0	 0.0;
	223	 155.0	 28.726	 80.0	 -50.0	 1.0499	 100.0	 1	 155.0	 0.0	 0.0	 0.0	 0.0	 0.0	 0.0	 0.0	 0.0	 0.0	 0.0	 0.0	 0.0;
	223	 350.0	 64.866	 150.0	 -25.0	 1.0499	 100.0	 1	 350.0	 0.0	 0.0	 0.0	 0.0	 0.0	 0.0	 0.0	 0.0	 0.0	 0.0	 0.0	 0.0;
	223	 350.0	 64.866	 150.0	 -25.0	 1.0499	 100.0	 1	 350.0	 0.0	 0.0	 0.0	 0.0	 0.0	 0.0	 0.0	 0.0	 0.0	 0.0	 0.0	 0.0;
];

%% generator cost data
%	1	startup	shutdown	ncost	 x_1	y_1	...	x_ncost	y_ncost
%	2	startup	shutdown	ncost	 c_(ncost-1)	...	c_0
mpc.gencost = [
	2	 0.0	 0.0	 3	 0.01	 20.0	 0.0;
	2	 0.0	 0.0	 3	 0.01	 20.0	 0.0;
	2	 0.0	 0.0	 3	 0.01	 20.0	 0.0;
	2	 0.0	 0.0	 3	 0.01	 20.0	 0.0;
	2	 0.0	 0.0	 3	 0.01	 20.0	 0.0;
	2	 0.0	 0.0	 3	 0.01	 20.0	 0.0;
	2	 0.0	 0.0	 3	 0.01	 20.0	 0.0;
	2	 0.0	 0.0	 3	 0.01	 20.0	 0.0;
	2	 0.0	 0.0	 3	 0.01	 20.0	 0.0;
	2	 0.0	 0.0	 3	 0.01	 20.0	 0.0;
	2	 0.0	 0.0	 3	 0.01	 20.0	 0.0;
	2	 0.0	 0.0	 3	 0.01	 20.0	 0.0;
	2	 0.0	 0.0	 3	 0.01	 20.0	 0.0;
	2	 0.0	 0.0	 3	 0.01	 20.0	 0.0;
	2	 0.0	 0.0	 3	 0.01	 20.0	 0.0;
	2	 0.0	 0.0	 3	 0.01	 20.0	 0.0;
	2	 0.0	 0.0	 3	 0.01	 20.0	 0.0;
	2	 0.0	 0.0	 3	 0.01	 20.0	 0.0;
	2	 0.0	 0.0	 3	 0.01	 20.0	 0.0;
	2	 0.0	 0.0	 3	 0.01	 20.0	 0.0;
	2	 0.0	 0.0	 3	 0.01	 20.0	 0.0;
	2	 0.0	 0.0	 3	 0.01	 20.0	 0.0;
	2	 0.0	 0.0	 3	 0.01	 20.0	 0.0;
	2	 0.0	 0.0	 3	 0.01	 20.0	 0.0;
	2	 0.0	 0.0	 3	 0.01	 20.0	 0.0;
	2	 0.0	 0.0	 3	 0.01	 20.0	 0.0;
	2	 0.0	 0.0	 3	 0.01	 20.0	 0.0;
	2	 0.0	 0.0	 3	 0.01	 20.0	 0.0;
	2	 0.0	 0.0	 3	 0.01	 20.0	 0.0;
	2	 0.0	 0.0	 3	 0.01	 20.0	 0.0;
	2	 0.0	 0.0	 3	 0.01	 20.0	 0.0;
	2	 0.0	 0.0	 3	 0.01	 20.0	 0.0;
	2	 0.0	 0.0	 3	 0.01	 20.0	 0.0;
];

%% branch data
%	f_bus	t_bus	br_r	br_x	br_b	rate_a	rate_b	rate_c	tap	shift	br_status	angmin	angmax
mpc.branch = [
	103	 224	 0.0023	 0.02	 0.0	 400.0	 510.0	 600.0	 1.0375	 0.0	 1	 -360.0	 360.0;
	109	 211	 0.0023	 0.02	 0.0	 400.0	 510.0	 600.0	 1.04689	 0.0	 1	 -360.0	 360.0;
	109	 212	 0.0023	 0.02	 0.0	 450.0	 510.0	 600.0	 1.03907	 0.0	 1	 -360.0	 360.0;
	110	 211	 0.0023	 0.02	 0.0	 400.0	 510.0	 600.0	 1.05	 0.0	 1	 -360.0	 360.0;
	110	 212	 0.0023	 0.02	 0.0	 400.0	 510.0	 600.0	 1.03717	 -24.229	 1	 -360.0	 360.0;
	225	 214	 0.001	 0.02	 0.0	 500.0	 600.0	 625.0	 1.0	 22.546	 1	 -360.0	 360.0;
	101	 102	 0.0026	 0.0139	 0.4611	 175.0	 193.0	 200.0	 1.0	 0.0	 1	 -360.0	 360.0;
	101	 103	 0.0546	 0.2112	 0.0572	 175.0	 208.0	 220.0	 1.0	 0.0	 1	 -360.0	 360.0;
	101	 105	 0.0218	 0.0845	 0.0229	 175.0	 208.0	 220.0	 1.0	 0.0	 1	 -360.0	 360.0;
	102	 104	 0.0328	 0.1267	 0.0343	 175.0	 208.0	 220.0	 1.0	 0.0	 1	 -360.0	 360.0;
	102	 106	 0.0497	 0.192	 0.052	 175.0	 208.0	 220.0	 1.0	 0.0	 1	 -360.0	 360.0;
	103	 109	 0.0308	 0.119	 0.0322	 175.0	 208.0	 220.0	 1.0	 0.0	 1	 -360.0	 360.0;
	104	 109	 0.0268	 0.1037	 0.0281	 175.0	 208.0	 220.0	 1.0	 0.0	 1	 -360.0	 360.0;
	105	 110	 0.0228	 0.0883	 0.0239	 175.0	 208.0	 220.0	 1.0	 0.0	 1	 -360.0	 360.0;
	106	 110	 0.0139	 0.0605	 2.459	 999.0	 999.0	 999.0	 1.0	 0.0	 1	 -360.0	 360.0;
	107	 108	 0.0159	 0.0614	 0.0166	 175.0	 208.0	 220.0	 1.0	 0.0	 1	 -360.0	 360.0;
	108	 109	 0.0427	 0.1651	 0.0447	 175.0	 208.0	 220.0	 1.0	 0.0	 1	 -360.0	 360.0;
	108	 110	 0.0427	 0.1651	 0.0447	 175.0	 208.0	 220.0	 1.0	 0.0	 1	 -360.0	 360.0;
	211	 213	 0.0061	 0.0476	 0.0999	 500.0	 600.0	 625.0	 1.0	 0.0	 1	 -360.0	 360.0;
	211	 214	 0.0054	 0.0418	 0.0879	 500.0	 600.0	 625.0	 1.0	 0.0	 1	 -360.0	 360.0;
	212	 213	 0.0061	 0.0476	 0.0999	 500.0	 600.0	 625.0	 1.0	 0.0	 1	 -360.0	 360.0;
	212	 223	 0.0124	 0.0966	 0.203	 500.0	 600.0	 625.0	 1.0	 0.0	 1	 -360.0	 360.0;
	213	 223	 0.0111	 0.0865	 0.1818	 500.0	 600.0	 625.0	 1.0	 0.0	 1	 -360.0	 360.0;
	215	 216	 0.0022	 0.0173	 0.0364	 500.0	 600.0	 625.0	 1.0	 0.0	 1	 -360.0	 360.0;
	215	 221	 0.0063	 0.049	 0.103	 500.0	 600.0	 625.0	 1.0	 0.0	 1	 -360.0	 360.0;
	215	 221	 0.0063	 0.049	 0.103	 500.0	 600.0	 625.0	 1.0	 0.0	 1	 -360.0	 360.0;
	215	 224	 0.0067	 0.0519	 0.1091	 500.0	 600.0	 625.0	 1.0	 0.0	 1	 -360.0	 360.0;
	216	 217	 0.0033	 0.0259	 0.0545	 500.0	 600.0	 625.0	 1.0	 0.0	 1	 -360.0	 360.0;
	216	 219	 0.003	 0.0231	 0.0485	 500.0	 600.0	 625.0	 1.0	 0.0	 1	 -360.0	 360.0;
	216	 225	 0.005	 0.0389	 0.0818	 500.0	 600.0	 625.0	 1.0	 0.0	 1	 -360.0	 360.0;
	217	 218	 0.0018	 0.0144	 0.0303	 500.0	 600.0	 625.0	 1.0	 0.0	 1	 -360.0	 360.0;
	217	 222	 0.0135	 0.1053	 0.2212	 500.0	 600.0	 625.0	 1.0	 0.0	 1	 -360.0	 360.0;
	218	 221	 0.0033	 0.0259	 0.0545	 500.0	 600.0	 625.0	 1.0	 0.0	 1	 -360.0	 360.0;
	218	 221	 0.0033	 0.0259	 0.0545	 500.0	 600.0	 625.0	 1.0	 0.0	 1	 -360.0	 360.0;
	219	 220	 0.0051	 0.0396	 0.0833	 500.0	 600.0	 625.0	 1.0	 0.0	 1	 -360.0	 360.0;
	219	 220	 0.0051	 0.0396	 0.0833	 500.0	 600.0	 625.0	 1.0	 0.0	 1	 -360.0	 360.0;
	220	 223	 0.0028	 0.0216	 0.0455	 500.0	 600.0	 625.0	 1.0	 0.0	 1	 -360.0	 360.0;
	220	 223	 0.0028	 0.0216	 0.0455	 500.0	 600.0	 625.0	 1.0	 0.0	 1	 -360.0	 360.0;
	221	 222	 0.0087	 0.0678	 0.1424	 500.0	 600.0	 625.0	 1.0	 0.0	 1	 -360.0	 360.0;
];
